Version 4
SHEET 1 880 884
WIRE 208 96 144 96
WIRE 144 112 144 96
WIRE 208 112 208 96
WIRE 400 192 400 96
WIRE 208 240 208 192
WIRE 336 240 208 240
WIRE 208 320 208 240
WIRE 400 320 400 288
WIRE 208 416 208 400
WIRE 304 416 208 416
WIRE 400 416 400 400
WIRE 400 416 304 416
WIRE 304 480 304 416
WIRE 304 480 208 480
WIRE 400 480 304 480
WIRE 208 512 208 480
WIRE 400 512 400 480
WIRE 208 608 208 592
WIRE 208 608 128 608
WIRE 400 608 400 592
WIRE 448 608 400 608
WIRE 448 640 448 608
WIRE 0 656 -32 656
WIRE 144 656 80 656
WIRE 336 656 320 656
WIRE -32 688 -32 656
WIRE 320 688 320 656
WIRE 208 736 208 704
WIRE 288 736 208 736
WIRE 400 736 400 704
WIRE 400 736 288 736
WIRE 288 784 288 736
WIRE 288 800 288 784
FLAG 144 112 0
FLAG 304 480 Ucc
FLAG 304 416 Uee
FLAG 400 96 Iee
FLAG 320 688 0
FLAG -32 688 0
FLAG 128 608 Wy1
FLAG 448 608 Wy2
FLAG 288 800 Uff
FLAG 288 784 Iee
FLAG 448 640 0
SYMBOL res 192 96 R0
SYMATTR InstName RB1
SYMATTR Value 10k
SYMBOL res 192 304 R0
SYMATTR InstName RB2
SYMATTR Value 10k
SYMBOL npn 336 192 R0
SYMATTR InstName Q1
SYMATTR Value BC547C
SYMBOL res 384 304 R0
SYMATTR InstName R1
SYMBOL res 192 496 R0
SYMATTR InstName R2
SYMBOL res 384 496 R0
SYMATTR InstName R3
SYMBOL npn 144 608 R0
SYMATTR InstName Q2
SYMBOL npn 336 608 R0
SYMATTR InstName Q3
SYMBOL voltage 96 656 R90
WINDOW 0 -32 56 VBottom 2
WINDOW 3 32 56 VTop 2
WINDOW 123 0 0 Left 2
WINDOW 39 0 0 Left 2
SYMATTR InstName Eg
SYMATTR Value SINE()
